<?xml version="1.0" encoding="ISO-8859-1"?>
<febio_spec version="4.0">
	<Module type="solid"/>
	<Control>
		<analysis>STATIC</analysis>
		<time_steps>10</time_steps>
		<step_size>0.1</step_size>
		<plot_zero_state>0</plot_zero_state>
		<plot_range>0,-1</plot_range>
		<plot_level>PLOT_MAJOR_ITRS</plot_level>
		<output_level>OUTPUT_MAJOR_ITRS</output_level>
		<plot_stride>1</plot_stride>
		<output_stride>1</output_stride>
		<adaptor_re_solve>1</adaptor_re_solve>
		<time_stepper type="default">
			<max_retries>10</max_retries>
			<opt_iter>200</opt_iter>
			<dtmin>0.01</dtmin>
			<dtmax>0.1</dtmax>
			<aggressiveness>0</aggressiveness>
			<cutback>0.5</cutback>
			<dtforce>0</dtforce>
		</time_stepper>
		<solver type="solid">
			<symmetric_stiffness>preferred</symmetric_stiffness>
			<equation_scheme>staggered</equation_scheme>
			<equation_order>default</equation_order>
			<optimize_bw>0</optimize_bw>
			<lstol>0.9</lstol>
			<lsmin>0.01</lsmin>
			<lsiter>5</lsiter>
			<ls_check_jacobians>0</ls_check_jacobians>
			<max_refs>15</max_refs>
			<check_zero_diagonal>0</check_zero_diagonal>
			<zero_diagonal_tol>0</zero_diagonal_tol>
			<force_partition>0</force_partition>
			<reform_each_time_step>1</reform_each_time_step>
			<reform_augment>0</reform_augment>
			<diverge_reform>1</diverge_reform>
			<min_residual>1e-20</min_residual>
			<max_residual>0</max_residual>
			<dtol>0.001</dtol>
			<etol>0.01</etol>
			<rtol>0</rtol>
			<rhoi>-2</rhoi>
			<alpha>1</alpha>
			<beta>0.25</beta>
			<gamma>0.5</gamma>
			<logSolve>0</logSolve>
			<arc_length>0</arc_length>
			<arc_length_scale>0</arc_length_scale>
			<qn_method type="BFGS">
				<max_ups>10</max_ups>
				<max_buffer_size>0</max_buffer_size>
				<cycle_buffer>1</cycle_buffer>
				<cmax>100000</cmax>
			</qn_method>
		</solver>
	</Control>
	<Globals>
		<Constants>
			<T>0</T>
			<P>0</P>
			<R>8.31446</R>
			<Fc>96485.3</Fc>
		</Constants>
	</Globals>
	<Material>
		<material id="1" name="Material1" type="neo-Hookean">
			<density>1</density>
			<E>1</E>
			<v>0</v>
		</material>
	</Material>
	<Mesh>
		<Nodes name="Object1">
			<node id="1">0,0,0</node>
			<node id="2">15,0,0</node>
			<node id="3">15,15,0</node>
			<node id="4">0,15,0</node>
			<node id="5">0,0,8</node>
			<node id="6">15,0,8</node>
			<node id="7">15,15,8</node>
			<node id="8">0,15,8</node>
			<node id="9">1,0,0</node>
			<node id="10">2,0,0</node>
			<node id="11">3,0,0</node>
			<node id="12">4,0,0</node>
			<node id="13">5,-8.8817842e-16,0</node>
			<node id="14">6,0,0</node>
			<node id="15">7,0,0</node>
			<node id="16">8,0,0</node>
			<node id="17">9,0,0</node>
			<node id="18">10,0,0</node>
			<node id="19">11,0,0</node>
			<node id="20">12,0,0</node>
<!-- ... 2284 like lines cut -->
		</Nodes>
		<Elements type="hex8" name="Part1">
			<elem id="1">1,9,723,134,50,149,933,456</elem>
			<elem id="2">9,10,724,723,149,150,934,933</elem>
			<elem id="3">10,11,725,724,150,151,935,934</elem>
			<elem id="4">11,12,726,725,151,152,936,935</elem>
			<elem id="5">12,13,727,726,152,153,937,936</elem>
			<elem id="6">13,14,728,727,153,154,938,937</elem>
			<elem id="7">14,15,729,728,154,155,939,938</elem>
			<elem id="8">15,16,730,729,155,156,940,939</elem>
			<elem id="9">16,17,731,730,156,157,941,940</elem>
			<elem id="10">17,18,732,731,157,158,942,941</elem>
			<elem id="11">18,19,733,732,158,159,943,942</elem>
			<elem id="12">19,20,734,733,159,160,944,943</elem>
			<elem id="13">20,21,735,734,160,161,945,944</elem>
			<elem id="14">21,22,736,735,161,162,946,945</elem>
			<elem id="15">22,2,51,736,162,23,247,946</elem>
			<elem id="16">134,723,709,133,456,933,947,455</elem>
			<elem id="17">723,724,710,709,933,934,948,947</elem>
			<elem id="18">724,725,711,710,934,935,949,948</elem>
			<elem id="19">725,726,712,711,935,936,950,949</elem>
			<elem id="20">726,727,713,712,936,937,951,950</elem>
<!-- ... 1780 like lines cut -->
		</Elements>
		<Surface name="ZeroDisplacement1">
			<quad4 id="1">1,9,149,50</quad4>
			<quad4 id="2">9,10,150,149</quad4>
			<quad4 id="3">10,11,151,150</quad4>
			<quad4 id="4">11,12,152,151</quad4>
			<quad4 id="5">12,13,153,152</quad4>
			<quad4 id="6">13,14,154,153</quad4>
			<quad4 id="7">14,15,155,154</quad4>
			<quad4 id="8">15,16,156,155</quad4>
			<quad4 id="9">16,17,157,156</quad4>
			<quad4 id="10">17,18,158,157</quad4>
			<quad4 id="11">18,19,159,158</quad4>
			<quad4 id="12">19,20,160,159</quad4>
			<quad4 id="13">20,21,161,160</quad4>
			<quad4 id="14">21,22,162,161</quad4>
			<quad4 id="15">22,2,23,162</quad4>
			<quad4 id="16">50,149,163,49</quad4>
			<quad4 id="17">149,150,164,163</quad4>
			<quad4 id="18">150,151,165,164</quad4>
			<quad4 id="19">151,152,166,165</quad4>
			<quad4 id="20">152,153,167,166</quad4>
<!-- ... 100 like lines cut -->
		</Surface>
	</Mesh>
	<MeshDomains>
		<SolidDomain name="Part1" mat="Material1"/>
	</MeshDomains>
	<Boundary>
		<bc name="ZeroDisplacement1" node_set="@surface:ZeroDisplacement1" type="zero displacement">
			<x_dof>1</x_dof>
			<y_dof>1</y_dof>
			<z_dof>1</z_dof>
		</bc>
	</Boundary>
	<Constraints>
        <constraint type="warp-image-norm">
			<template file="template3D.raw">
				<size>64,64,32</size>
			</template>
			<target file="target3D.raw">
				<size>64,64,32</size>
			</target>
			<range_min>0,0,0</range_min>
			<range_max>15,15,8</range_max>
            <window_size>1.2,1.2,1.25</window_size>
			<penalty lc="1">0.8</penalty>
			<blur lc="2">1</blur>
			<laugon>1</laugon>
			<altol>0.1</altol>
		</constraint>
	</Constraints>
	<LoadData>
		<load_controller type="loadcurve" id="1">
			<interpolate>linear</interpolate>
			<points>
				<loadpoint>0.0,0</loadpoint>
				<loadpoint>0.5,10</loadpoint>
				<loadpoint>1.0,50</loadpoint>
			</points>
		</load_controller>
		<load_controller type="loadcurve" id="2">
			<interpolate>linear</interpolate>
			<points>
				<loadpoint>0.0,10</loadpoint>
				<loadpoint>1.0, 0</loadpoint>
			</points>
		</load_controller>
	</LoadData>
	<Output>
		<plotfile type="febio">
			<var type="displacement"/>
			<var type="stress"/>
			<var type="warp-template"/>
			<var type="warp-target"/>
			<var type="warp-energy"/>
            <var type="warp-force"/>
            <var type="warp-ncc-energy"/>
            <var type="warp-ncc-force"/>
            <var type="warp-ncc-force2"/>
		</plotfile>
    </Output>
</febio_spec>
