<?xml version="1.0" encoding="ISO-8859-1"?>
<!--
Problem Description:
	A circular template is warped to a square target using the warping plugin.
Main Features:
	Plugin
	Warping
Secondary Features:
	
Materials:
	Neo-Hookean
Degrees of Freedom: 15876
Results:
	Steps Completed: 12
	Equilibrium Iterations: 66
	Right Hand Evaluations: 87
	Siffness Reformations: 14
	Other:
		The x-displacement of node 6338 is 3.27678 at time t=1.
Comments:
-->
<febio_spec version="4.0">
	<Module type="solid"/>
	<Control>
		<analysis>STATIC</analysis>
		<time_steps>10</time_steps>
		<step_size>0.1</step_size>
		<plot_zero_state>0</plot_zero_state>
		<plot_range>0,-1</plot_range>
		<plot_level>PLOT_MAJOR_ITRS</plot_level>
		<output_level>OUTPUT_MAJOR_ITRS</output_level>
		<plot_stride>1</plot_stride>
		<adaptor_re_solve>1</adaptor_re_solve>
		<time_stepper type="default">
			<max_retries>5</max_retries>
			<opt_iter>10</opt_iter>
			<dtmin>0.01</dtmin>
			<dtmax>0.1</dtmax>
			<aggressiveness>0</aggressiveness>
			<cutback>0.5</cutback>
			<dtforce>0</dtforce>
		</time_stepper>
		<solver type="solid">
			<symmetric_stiffness>symmetric</symmetric_stiffness>
			<equation_scheme>staggered</equation_scheme>
			<equation_order>default</equation_order>
			<optimize_bw>0</optimize_bw>
			<lstol>0.9</lstol>
			<lsmin>0.01</lsmin>
			<lsiter>5</lsiter>
			<max_refs>15</max_refs>
			<check_zero_diagonal>0</check_zero_diagonal>
			<zero_diagonal_tol>0</zero_diagonal_tol>
			<force_partition>0</force_partition>
			<reform_each_time_step>1</reform_each_time_step>
			<reform_augment>0</reform_augment>
			<diverge_reform>1</diverge_reform>
			<min_residual>1e-20</min_residual>
			<max_residual>0</max_residual>
			<dtol>0.001</dtol>
			<etol>0.01</etol>
			<rtol>0</rtol>
			<rhoi>0</rhoi>
			<alpha>1</alpha>
			<beta>0.25</beta>
			<gamma>0.5</gamma>
			<logSolve>0</logSolve>
			<arc_length>0</arc_length>
			<arc_length_scale>0</arc_length_scale>
			<qn_method type="BFGS">
				<max_ups>10</max_ups>
				<max_buffer_size>0</max_buffer_size>
				<cycle_buffer>1</cycle_buffer>
				<cmax>100000</cmax>
			</qn_method>
		</solver>
	</Control>
	<Globals>
		<Constants>
			<T>0</T>
			<P>0</P>
			<R>0</R>
			<Fc>0</Fc>
		</Constants>
	</Globals>
	<Material>
		<material id="1" name="Material1" type="neo-Hookean">
			<density>1</density>
			<E>1</E>
			<v>0</v>
		</material>
	</Material>
	<Mesh>
		<Nodes name="Object01">
			<node id="1">0,0,0</node>
			<node id="2">0,0,1</node>
			<node id="3">0,1,0</node>
			<node id="4">0,1,1</node>
			<node id="5">0,2,0</node>
			<node id="6">0,2,1</node>
			<node id="7">0,3,0</node>
			<node id="8">0,3,1</node>
			<node id="9">0,4,0</node>
			<node id="10">0,4,1</node>
			<node id="11">0,5,0</node>
			<node id="12">0,5,1</node>
			<node id="13">0,6,0</node>
			<node id="14">0,6,1</node>
			<node id="15">0,7,0</node>
			<node id="16">0,7,1</node>
			<node id="17">0,8,0</node>
			<node id="18">0,8,1</node>
			<node id="19">0,9,0</node>
			<node id="20">0,9,1</node>
<!-- ... 8430 like lines cut -->
		</Nodes>
		<Elements type="hex8" name="Part1">
			<elem id="1">1,131,133,3,2,132,134,4</elem>
			<elem id="2">3,133,135,5,4,134,136,6</elem>
			<elem id="3">5,135,137,7,6,136,138,8</elem>
			<elem id="4">7,137,139,9,8,138,140,10</elem>
			<elem id="5">9,139,141,11,10,140,142,12</elem>
			<elem id="6">11,141,143,13,12,142,144,14</elem>
			<elem id="7">13,143,145,15,14,144,146,16</elem>
			<elem id="8">15,145,147,17,16,146,148,18</elem>
			<elem id="9">17,147,149,19,18,148,150,20</elem>
			<elem id="10">19,149,151,21,20,150,152,22</elem>
			<elem id="11">21,151,153,23,22,152,154,24</elem>
			<elem id="12">23,153,155,25,24,154,156,26</elem>
			<elem id="13">25,155,157,27,26,156,158,28</elem>
			<elem id="14">27,157,159,29,28,158,160,30</elem>
			<elem id="15">29,159,161,31,30,160,162,32</elem>
			<elem id="16">31,161,163,33,32,162,164,34</elem>
			<elem id="17">33,163,165,35,34,164,166,36</elem>
			<elem id="18">35,165,167,37,36,166,168,38</elem>
			<elem id="19">37,167,169,39,38,168,170,40</elem>
			<elem id="20">39,169,171,41,40,170,172,42</elem>
<!-- ... 4076 like lines cut -->
		</Elements>
		<NodeSet name="FixedNodeset01">
			1, 2, 3, 4, 5, 6, 7, 8,
			9, 10, 11, 12, 13, 14, 15, 16,
			17, 18, 19, 20, 21, 22, 23, 24,
			25, 26, 27, 28, 29, 30, 31, 32,
			33, 34, 35, 36, 37, 38, 39, 40,
			41, 42, 43, 44, 45, 46, 47, 48,
			49, 50, 51, 52, 53, 54, 55, 56,
			57, 58, 59, 60, 61, 62, 63, 64,
			65, 66, 67, 68, 69, 70, 71, 72,
			73, 74, 75, 76, 77, 78, 79, 80,
			81, 82, 83, 84, 85, 86, 87, 88,
			89, 90, 91, 92, 93, 94, 95, 96,
			97, 98, 99, 100, 101, 102, 103, 104,
			105, 106, 107, 108, 109, 110, 111, 112,
			113, 114, 115, 116, 117, 118, 119, 120,
			121, 122, 123, 124, 125, 126, 127, 128,
			129, 130, 131, 132, 259, 260, 261, 262,
			389, 390, 391, 392, 519, 520, 521, 522,
			649, 650, 651, 652, 779, 780, 781, 782,
			909, 910, 911, 912, 1039, 1040, 1041, 1042,
<!-- ... 44 like lines cut -->
		</NodeSet>
		<NodeSet name="FixedNodeset02">
			1, 2, 3, 4, 5, 6, 7, 8,
			9, 10, 11, 12, 13, 14, 15, 16,
			17, 18, 19, 20, 21, 22, 23, 24,
			25, 26, 27, 28, 29, 30, 31, 32,
			33, 34, 35, 36, 37, 38, 39, 40,
			41, 42, 43, 44, 45, 46, 47, 48,
			49, 50, 51, 52, 53, 54, 55, 56,
			57, 58, 59, 60, 61, 62, 63, 64,
			65, 66, 67, 68, 69, 70, 71, 72,
			73, 74, 75, 76, 77, 78, 79, 80,
			81, 82, 83, 84, 85, 86, 87, 88,
			89, 90, 91, 92, 93, 94, 95, 96,
			97, 98, 99, 100, 101, 102, 103, 104,
			105, 106, 107, 108, 109, 110, 111, 112,
			113, 114, 115, 116, 117, 118, 119, 120,
			121, 122, 123, 124, 125, 126, 127, 128,
			129, 130, 131, 132, 133, 134, 135, 136,
			137, 138, 139, 140, 141, 142, 143, 144,
			145, 146, 147, 148, 149, 150, 151, 152,
			153, 154, 155, 156, 157, 158, 159, 160,
<!-- ... 1037 like lines cut -->
		</NodeSet>
		<NodeSet name="nodeset03">
			6338
		</NodeSet>
	</Mesh>
	<MeshDomains>
		<SolidDomain name="Part1" mat="Material1"/>
	</MeshDomains>
	<Boundary>
		<bc name="FixedDisplacement01" node_set="FixedNodeset01" type="zero displacement">
			<x_dof>1</x_dof>
			<y_dof>1</y_dof>
			<z_dof>0</z_dof>
		</bc>
		<bc name="FixedDisplacement02" node_set="FixedNodeset02" type="zero displacement">
			<x_dof>0</x_dof>
			<y_dof>0</y_dof>
			<z_dof>1</z_dof>
		</bc>
	</Boundary>
	<Constraints>
		<constraint type="warp-image">
			<template file="template.raw">
				<size>64,64,1</size>
			</template>
			<target file="target.raw">
				<size>64,64,1</size>
			</target>
			<range_min>0,0,0</range_min>
			<range_max>64,64,0</range_max>
			<penalty lc="1">1</penalty>
			<blur lc="2">1</blur>
			<laugon>1</laugon>
			<altol>0.1</altol>
		</constraint>
	</Constraints>
	<LoadData>
		<load_controller id="1" name="LC1" type="loadcurve">
			<interpolate>LINEAR</interpolate>
			<extend>CONSTANT</extend>
			<points>
				<pt>0,0</pt>
				<pt>0.5,10</pt>
				<pt>1,50</pt>
			</points>
		</load_controller>
		<load_controller id="2" name="LC2" type="loadcurve">
			<interpolate>LINEAR</interpolate>
			<extend>CONSTANT</extend>
			<points>
				<pt>0,10</pt>
				<pt>1,0</pt>
			</points>
		</load_controller>
	</LoadData>
	<Output>
		<plotfile type="febio">
			<var type="displacement"/>
			<var type="stress"/>
			<var type="warp-template"/>
			<var type="warp-target"/>
			<var type="warp-energy"/>
		</plotfile>
		<logfile>
			<node_data data="ux" node_set="nodeset03"/>
			<element_data data="warp-template;warp-target;warp-energy;warp-force-x;warp-force-y;warp-force-z"/>
		</logfile>
	</Output>
</febio_spec>
